31

C 0.178137 0.023139 0.412368
H 0.835553 0.524899 -0.301980
H 0.782031 -0.601689 1.073610
C -0.598103 1.050400 1.225652
H -1.210310 0.552618 1.979206
H -1.266376 1.627120 0.573655
C -0.027758 2.625324 3.022268
C 0.497943 4.539918 4.462321
H 1.423171 4.969348 4.853950
H 0.000025 4.019113 5.283332
C -0.401626 5.639009 3.900566
H -1.335017 5.213661 3.526287
H 0.104762 6.162247 3.086168
S -0.791628 6.843304 5.230175
H -1.627570 7.616867 4.497656
S -1.006687 -1.030090 -0.507799
N 0.335023 1.932662 1.905919
H 1.076110 2.322214 1.337153
N 0.865882 3.568581 3.448681
H 1.581480 3.859943 2.795574
O -1.073352 2.375031 3.651291
H -0.087670 -1.812849 -1.096189
O -2.865982 8.576796 3.230102
H -2.607661 9.505735 3.243622
H -3.711020 8.550691 3.694031
O 2.173214 8.263152 4.538554
H 2.667328 8.395473 5.355399
H 1.310047 7.923676 4.827433
O -3.015476 4.585503 6.407597
H -2.385804 5.284068 6.165503
H -3.619558 5.007262 7.028684